ZINC00003028
  -OEChem-11201307313D

 48 49  0     0  0  0  0  0  0999 V2000
   -0.0187    1.5258    0.0104 C   0  0  0  0  0  0  0  0  0  0  0  0
    0.0021   -0.0041    0.0020 C   0  0  0  0  0  0  0  0  0  0  0  0
    0.7421   -0.5109    1.2415 C   0  0  0  0  0  0  0  0  0  0  0  0
   -1.4333   -0.5336    0.0129 C   0  0  0  0  0  0  0  0  0  0  0  0
   -2.1387   -0.0476    1.2528 C   0  0  0  0  0  0  0  0  0  0  0  0
   -2.0922   -0.7990    2.4125 C   0  0  0  0  0  0  0  0  0  0  0  0
   -2.7383   -0.3559    3.5503 C   0  0  0  0  0  0  0  0  0  0  0  0
   -3.4339    0.8443    3.5287 C   0  0  0  0  0  0  0  0  0  0  0  0
   -3.4787    1.5965    2.3639 C   0  0  0  0  0  0  0  0  0  0  0  0
   -2.8265    1.1516    1.2302 C   0  0  0  0  0  0  0  0  0  0  0  0
   -4.0708    1.2821    4.6466 O   0  0  0  0  0  0  0  0  0  0  0  0
   -4.7671    2.5263    4.5512 C   0  0  0  0  0  0  0  0  0  0  0  0
   -5.4161    2.8520    5.8979 C   0  0  0  0  0  0  0  0  0  0  0  0
   -6.1504    4.1642    5.7974 C   0  0  0  0  0  0  0  0  0  0  0  0
   -5.4618    5.3463    5.9833 C   0  0  0  0  0  0  0  0  0  0  0  0
   -6.1434    6.5523    5.8895 C   0  0  0  0  0  0  0  0  0  0  0  0
   -7.4982    6.5250    5.6111 C   0  0  0  0  0  0  0  0  0  0  0  0
   -8.1282    5.2974    5.4356 C   0  0  0  0  0  0  0  0  0  0  0  0
   -7.4420    4.1686    5.5276 N   0  3  0  0  0  0  0  0  0  0  0  0
   -9.4892    5.2553    5.1558 N   0  0  0  0  0  0  0  0  0  0  0  0
    0.7182   -0.4975   -1.2568 C   0  0  0  0  0  0  0  0  0  0  0  0
    2.1320    0.0241   -1.2675 C   0  0  0  0  0  0  0  0  0  0  0  0
    2.5300    0.7255   -0.3530 O   0  0  0  0  0  0  0  0  0  0  0  0
    2.8779   -0.2552   -2.1906 O   0  5  0  0  0  0  0  0  0  0  0  0
    1.0039    1.9031    0.0027 H   0  0  0  0  0  0  0  0  0  0  0  0
   -0.5459    1.8868   -0.8726 H   0  0  0  0  0  0  0  0  0  0  0  0
   -0.5289    1.8773    0.9072 H   0  0  0  0  0  0  0  0  0  0  0  0
    0.2319   -0.1594    2.1383 H   0  0  0  0  0  0  0  0  0  0  0  0
    0.7568   -1.6008    1.2356 H   0  0  0  0  0  0  0  0  0  0  0  0
    1.7647   -0.1336    1.2338 H   0  0  0  0  0  0  0  0  0  0  0  0
   -1.9605   -0.1726   -0.8702 H   0  0  0  0  0  0  0  0  0  0  0  0
   -1.4185   -1.6235    0.0069 H   0  0  0  0  0  0  0  0  0  0  0  0
   -1.5506   -1.7332    2.4289 H   0  0  0  0  0  0  0  0  0  0  0  0
   -2.7023   -0.9434    4.4558 H   0  0  0  0  0  0  0  0  0  0  0  0
   -4.0195    2.5311    2.3445 H   0  0  0  0  0  0  0  0  0  0  0  0
   -2.8574    1.7389    0.3244 H   0  0  0  0  0  0  0  0  0  0  0  0
   -4.0646    3.3164    4.2859 H   0  0  0  0  0  0  0  0  0  0  0  0
   -5.5383    2.4533    3.7844 H   0  0  0  0  0  0  0  0  0  0  0  0
   -6.1186    2.0619    6.1633 H   0  0  0  0  0  0  0  0  0  0  0  0
   -4.6449    2.9251    6.6647 H   0  0  0  0  0  0  0  0  0  0  0  0
   -4.4038    5.3331    6.1997 H   0  0  0  0  0  0  0  0  0  0  0  0
   -5.6276    7.4905    6.0311 H   0  0  0  0  0  0  0  0  0  0  0  0
   -8.0593    7.4445    5.5315 H   0  0  0  0  0  0  0  0  0  0  0  0
   -9.9952    6.0797    5.0838 H   0  0  0  0  0  0  0  0  0  0  0  0
   -9.9328    4.4016    5.0326 H   0  0  0  0  0  0  0  0  0  0  0  0
    0.7330   -1.5874   -1.2628 H   0  0  0  0  0  0  0  0  0  0  0  0
    0.1910   -0.1364   -2.1398 H   0  0  0  0  0  0  0  0  0  0  0  0
   -7.9009    3.3240    5.3973 H   0  0  0  0  0  0  0  0  0  0  0  0
  1  2  1  0  0  0  0
  1 25  1  0  0  0  0
  1 26  1  0  0  0  0
  1 27  1  0  0  0  0
  2  3  1  0  0  0  0
  2  4  1  0  0  0  0
  2 21  1  0  0  0  0
  3 28  1  0  0  0  0
  3 29  1  0  0  0  0
  3 30  1  0  0  0  0
  4  5  1  0  0  0  0
  4 31  1  0  0  0  0
  4 32  1  0  0  0  0
  5 10  2  0  0  0  0
  5  6  1  0  0  0  0
  6  7  2  0  0  0  0
  6 33  1  0  0  0  0
  7  8  1  0  0  0  0
  7 34  1  0  0  0  0
  8  9  2  0  0  0  0
  8 11  1  0  0  0  0
  9 10  1  0  0  0  0
  9 35  1  0  0  0  0
 10 36  1  0  0  0  0
 11 12  1  0  0  0  0
 12 13  1  0  0  0  0
 12 37  1  0  0  0  0
 12 38  1  0  0  0  0
 13 14  1  0  0  0  0
 13 39  1  0  0  0  0
 13 40  1  0  0  0  0
 14 19  2  0  0  0  0
 14 15  1  0  0  0  0
 15 16  2  0  0  0  0
 15 41  1  0  0  0  0
 16 17  1  0  0  0  0
 16 42  1  0  0  0  0
 17 18  2  0  0  0  0
 17 43  1  0  0  0  0
 18 19  1  0  0  0  0
 18 20  1  0  0  0  0
 19 48  1  0  0  0  0
 20 44  1  0  0  0  0
 20 45  1  0  0  0  0
 21 22  1  0  0  0  0
 21 46  1  0  0  0  0
 21 47  1  0  0  0  0
 22 23  2  0  0  0  0
 22 24  1  0  0  0  0
M  CHG  2  19   1  24  -1
M  END
$$$$
