ZINC00032101
  -OEChem-11201307303D

 39 41  0     1  0  0  0  0  0999 V2000
    1.8243   -3.8725   -2.6611 C   0  0  0  0  0  0  0  0  0  0  0  0
   -0.3145   -2.7773   -2.9590 C   0  0  0  0  0  0  0  0  0  0  0  0
   -0.9780   -1.4849   -3.4464 C   0  0  0  0  0  0  0  0  0  0  0  0
   -0.4854   -0.3684   -2.6254 N   0  0  0  0  0  0  0  0  0  0  0  0
    0.9683   -0.2085   -2.4684 C   0  0  0  0  0  0  0  0  0  0  0  0
    1.5550   -1.5547   -2.0147 C   0  0  0  0  0  0  0  0  0  0  0  0
   -1.3431    0.4888   -2.0371 C   0  0  0  0  0  0  0  0  0  0  0  0
   -2.5387    0.3449   -2.1814 O   0  0  0  0  0  0  0  0  0  0  0  0
   -0.8165    1.6259   -1.2001 C   0  0  1  0  0  0  0  0  0  0  0  0
   -0.1997    2.2913   -1.8041 H   0  0  0  0  0  0  0  0  0  0  0  0
   -1.9911    2.4154   -0.5392 C   0  0  2  0  0  0  0  0  0  0  0  0
   -2.5340    3.1044   -1.1861 H   0  0  0  0  0  0  0  0  0  0  0  0
   -1.2559    3.0252    0.7100 C   0  0  0  0  0  0  0  0  0  0  0  0
   -0.8001    1.6175    1.2478 C   0  0  2  0  0  0  0  0  0  0  0  0
   -0.2740    1.5901    2.2020 H   0  0  0  0  0  0  0  0  0  0  0  0
   -0.0127    1.0858    0.0080 C   0  0  2  0  0  0  0  0  0  0  0  0
    0.0021   -0.0041    0.0020 H   0  0  0  0  0  0  0  0  0  0  0  0
    1.3913    1.6332   -0.0025 C   0  0  0  0  0  0  0  0  0  0  0  0
    1.7516    2.3552   -0.9018 O   0  0  0  0  0  0  0  0  0  0  0  0
   -2.1421    0.8715    1.1814 C   0  0  0  0  0  0  0  0  0  0  0  0
   -2.8263    1.3313    0.1530 C   0  0  0  0  0  0  0  0  0  0  0  0
    1.5611   -4.6110   -3.4184 H   0  0  0  0  0  0  0  0  0  0  0  0
    2.9030   -3.7160   -2.6657 H   0  0  0  0  0  0  0  0  0  0  0  0
    1.5134   -4.2314   -1.6800 H   0  0  0  0  0  0  0  0  0  0  0  0
   -0.6556   -3.0026   -1.9486 H   0  0  0  0  0  0  0  0  0  0  0  0
   -0.5829   -3.5975   -3.6249 H   0  0  0  0  0  0  0  0  0  0  0  0
   -2.0599   -1.5667   -3.3419 H   0  0  0  0  0  0  0  0  0  0  0  0
   -0.7233   -1.3108   -4.4919 H   0  0  0  0  0  0  0  0  0  0  0  0
    1.4095    0.0841   -3.4212 H   0  0  0  0  0  0  0  0  0  0  0  0
    1.1738    0.5538   -1.7170 H   0  0  0  0  0  0  0  0  0  0  0  0
    1.1878   -1.7970   -1.0174 H   0  0  0  0  0  0  0  0  0  0  0  0
    2.6428   -1.4881   -1.9960 H   0  0  0  0  0  0  0  0  0  0  0  0
   -0.4122    3.6564    0.4309 H   0  0  0  0  0  0  0  0  0  0  0  0
   -1.9399    3.5311    1.3913 H   0  0  0  0  0  0  0  0  0  0  0  0
   -2.4685    0.1001    1.8631 H   0  0  0  0  0  0  0  0  0  0  0  0
   -3.8085    1.0006   -0.1507 H   0  0  0  0  0  0  0  0  0  0  0  0
    1.1533   -2.5965   -2.9848 N   0  3  0  0  0  0  0  0  0  0  0  0
    1.4357   -2.3009   -3.9266 H   0  0  0  0  0  0  0  0  0  0  0  0
    2.2417    1.3187    0.9873 O   0  5  0  0  0  0  0  0  0  0  0  0
  1 22  1  0  0  0  0
  1 23  1  0  0  0  0
  1 24  1  0  0  0  0
  1 37  1  0  0  0  0
  2  3  1  0  0  0  0
  2 25  1  0  0  0  0
  2 26  1  0  0  0  0
  2 37  1  0  0  0  0
  3  4  1  0  0  0  0
  3 27  1  0  0  0  0
  3 28  1  0  0  0  0
  4  5  1  0  0  0  0
  4  7  1  0  0  0  0
  5  6  1  0  0  0  0
  5 29  1  0  0  0  0
  5 30  1  0  0  0  0
  6 31  1  0  0  0  0
  6 32  1  0  0  0  0
  6 37  1  0  0  0  0
  7  8  2  0  0  0  0
  7  9  1  0  0  0  0
  9 10  1  0  0  0  0
  9 16  1  0  0  0  0
  9 11  1  0  0  0  0
 11 12  1  0  0  0  0
 11 21  1  0  0  0  0
 11 13  1  0  0  0  0
 13 14  1  0  0  0  0
 13 33  1  0  0  0  0
 13 34  1  0  0  0  0
 14 15  1  0  0  0  0
 14 16  1  0  0  0  0
 14 20  1  0  0  0  0
 16 17  1  0  0  0  0
 16 18  1  0  0  0  0
 18 19  2  0  0  0  0
 18 39  1  0  0  0  0
 20 21  2  0  0  0  0
 20 35  1  0  0  0  0
 21 36  1  0  0  0  0
 37 38  1  0  0  0  0
M  CHG  2  37   1  39  -1
M  END
$$$$
