ZINC95076007
  -OEChem-11201307313D

 19 19  0     0  0  0  0  0  0999 V2000
   -0.0178    1.4608    0.0101 C   0  0  0  0  0  0  0  0  0  0  0  0
    0.0021   -0.0041    0.0020 N   0  0  0  0  0  0  0  0  0  0  0  0
    0.7421   -0.8289    1.2326 S   0  0  0  0  0  0  0  0  0  0  0  0
    0.5703   -2.2120    0.9554 O   0  0  0  0  0  0  0  0  0  0  0  0
    2.0239   -0.2396    1.4033 O   0  0  0  0  0  0  0  0  0  0  0  0
   -0.1663   -0.4937    2.7047 C   0  0  0  0  0  0  0  0  0  0  0  0
    0.1793    0.5921    3.4893 C   0  0  0  0  0  0  0  0  0  0  0  0
   -0.5432    0.8468    4.6460 C   0  0  0  0  0  0  0  0  0  0  0  0
   -1.5895   -0.0030    4.9709 C   0  0  0  0  0  0  0  0  0  0  0  0
   -1.8760   -1.0678    4.1380 C   0  0  0  0  0  0  0  0  0  0  0  0
   -1.1712   -1.2773    3.0431 N   0  0  0  0  0  0  0  0  0  0  0  0
    1.5001    1.6220    3.0329 Cl  0  0  0  0  0  0  0  0  0  0  0  0
    1.0048    1.8381    0.0023 H   0  0  0  0  0  0  0  0  0  0  0  0
   -0.5450    1.8219   -0.8730 H   0  0  0  0  0  0  0  0  0  0  0  0
   -0.5280    1.8123    0.9069 H   0  0  0  0  0  0  0  0  0  0  0  0
   -0.4183   -0.4908   -0.7241 H   0  0  0  0  0  0  0  0  0  0  0  0
   -0.2964    1.6867    5.2785 H   0  0  0  0  0  0  0  0  0  0  0  0
   -2.1731    0.1649    5.8640 H   0  0  0  0  0  0  0  0  0  0  0  0
   -2.6892   -1.7343    4.3846 H   0  0  0  0  0  0  0  0  0  0  0  0
  1  2  1  0  0  0  0
  1 13  1  0  0  0  0
  1 14  1  0  0  0  0
  1 15  1  0  0  0  0
  2  3  1  0  0  0  0
  2 16  1  0  0  0  0
  3  4  2  0  0  0  0
  3  5  2  0  0  0  0
  3  6  1  0  0  0  0
  6 11  2  0  0  0  0
  6  7  1  0  0  0  0
  7  8  2  0  0  0  0
  7 12  1  0  0  0  0
  8  9  1  0  0  0  0
  8 17  1  0  0  0  0
  9 10  2  0  0  0  0
  9 18  1  0  0  0  0
 10 11  1  0  0  0  0
 10 19  1  0  0  0  0
M  END
$$$$
