ZINC00000666
  -OEChem-11201307303D

 37 38  0     1  0  0  0  0  0999 V2000
   -0.0187    1.5258    0.0104 C   0  0  0  0  0  0  0  0  0  0  0  0
    0.0021   -0.0041    0.0020 C   0  0  0  0  0  0  0  0  0  0  0  0
    0.7421   -0.5109    1.2415 C   0  0  0  0  0  0  0  0  0  0  0  0
   -1.3761   -0.5125    0.0124 N   0  3  0  0  0  0  0  0  0  0  0  0
   -2.0500   -0.1262   -1.2343 C   0  0  0  0  0  0  0  0  0  0  0  0
   -3.4854   -0.6557   -1.2235 C   0  0  2  0  0  0  0  0  0  0  0  0
   -3.4743   -1.7319   -1.0509 H   0  0  0  0  0  0  0  0  0  0  0  0
   -4.1376   -0.3665   -2.5509 C   0  0  0  0  0  0  0  0  0  0  0  0
   -4.6368    0.9093   -2.8070 C   0  0  0  0  0  0  0  0  0  0  0  0
   -5.2318    1.2035   -3.9951 C   0  0  0  0  0  0  0  0  0  0  0  0
   -5.3458    0.2084   -4.9809 C   0  0  0  0  0  0  0  0  0  0  0  0
   -5.9533    0.4747   -6.2199 C   0  0  0  0  0  0  0  0  0  0  0  0
   -6.0456   -0.5138   -7.1508 C   0  0  0  0  0  0  0  0  0  0  0  0
   -5.5461   -1.7895   -6.8949 C   0  0  0  0  0  0  0  0  0  0  0  0
   -4.9515   -2.0838   -5.7066 C   0  0  0  0  0  0  0  0  0  0  0  0
   -4.8379   -1.0888   -4.7207 C   0  0  0  0  0  0  0  0  0  0  0  0
   -4.2253   -1.3535   -3.4838 C   0  0  0  0  0  0  0  0  0  0  0  0
   -4.2221   -0.0137   -0.1809 O   0  0  0  0  0  0  0  0  0  0  0  0
    1.0039    1.9031    0.0027 H   0  0  0  0  0  0  0  0  0  0  0  0
   -0.5459    1.8868   -0.8726 H   0  0  0  0  0  0  0  0  0  0  0  0
   -0.5289    1.8773    0.9072 H   0  0  0  0  0  0  0  0  0  0  0  0
    0.5123   -0.3556   -0.8948 H   0  0  0  0  0  0  0  0  0  0  0  0
    0.2319   -0.1594    2.1383 H   0  0  0  0  0  0  0  0  0  0  0  0
    0.7568   -1.6008    1.2356 H   0  0  0  0  0  0  0  0  0  0  0  0
    1.7647   -0.1336    1.2338 H   0  0  0  0  0  0  0  0  0  0  0  0
   -1.3629   -1.5185    0.0898 H   0  0  0  0  0  0  0  0  0  0  0  0
   -2.0643    0.9605   -1.3179 H   0  0  0  0  0  0  0  0  0  0  0  0
   -1.5132   -0.5489   -2.0836 H   0  0  0  0  0  0  0  0  0  0  0  0
   -4.5505    1.6759   -2.0511 H   0  0  0  0  0  0  0  0  0  0  0  0
   -5.6147    2.1964   -4.1792 H   0  0  0  0  0  0  0  0  0  0  0  0
   -6.3452    1.4584   -6.4321 H   0  0  0  0  0  0  0  0  0  0  0  0
   -6.5132   -0.3066   -8.1020 H   0  0  0  0  0  0  0  0  0  0  0  0
   -5.6325   -2.5561   -7.6507 H   0  0  0  0  0  0  0  0  0  0  0  0
   -4.5694   -3.0769   -5.5221 H   0  0  0  0  0  0  0  0  0  0  0  0
   -3.8298   -2.3362   -3.2732 H   0  0  0  0  0  0  0  0  0  0  0  0
   -4.2734    0.9478   -0.2701 H   0  0  0  0  0  0  0  0  0  0  0  0
   -1.8730   -0.1212    0.7986 H   0  0  0  0  0  0  0  0  0  0  0  0
  1  2  1  0  0  0  0
  1 19  1  0  0  0  0
  1 20  1  0  0  0  0
  1 21  1  0  0  0  0
  2  3  1  0  0  0  0
  2  4  1  0  0  0  0
  2 22  1  0  0  0  0
  3 23  1  0  0  0  0
  3 24  1  0  0  0  0
  3 25  1  0  0  0  0
  4  5  1  0  0  0  0
  4 26  1  0  0  0  0
  4 37  1  0  0  0  0
  5  6  1  0  0  0  0
  5 27  1  0  0  0  0
  5 28  1  0  0  0  0
  6  7  1  0  0  0  0
  6  8  1  0  0  0  0
  6 18  1  0  0  0  0
  8 17  2  0  0  0  0
  8  9  1  0  0  0  0
  9 10  2  0  0  0  0
  9 29  1  0  0  0  0
 10 11  1  0  0  0  0
 10 30  1  0  0  0  0
 11 16  2  0  0  0  0
 11 12  1  0  0  0  0
 12 13  2  0  0  0  0
 12 31  1  0  0  0  0
 13 14  1  0  0  0  0
 13 32  1  0  0  0  0
 14 15  2  0  0  0  0
 14 33  1  0  0  0  0
 15 16  1  0  0  0  0
 15 34  1  0  0  0  0
 16 17  1  0  0  0  0
 17 35  1  0  0  0  0
 18 36  1  0  0  0  0
M  CHG  1   4   1
M  END
$$$$
