ZINC00001016
  -OEChem-11201307293D

 28 29  0     0  0  0  0  0  0999 V2000
    3.6344    3.3844   -0.0139 C   0  0  0  0  0  0  0  0  0  0  0  0
    3.6567    2.0010   -0.0221 C   0  0  0  0  0  0  0  0  0  0  0  0
    2.4752    1.2889   -0.0147 C   0  0  0  0  0  0  0  0  0  0  0  0
    1.2552    1.9673    0.0006 C   0  0  0  0  0  0  0  0  0  0  0  0
    1.2398    3.3633    0.0025 C   0  0  0  0  0  0  0  0  0  0  0  0
    2.4286    4.0630    0.0012 C   0  0  0  0  0  0  0  0  0  0  0  0
   -0.0144    1.2111    0.0087 C   0  0  0  0  0  0  0  0  0  0  0  0
    0.0021   -0.0041    0.0020 O   0  0  0  0  0  0  0  0  0  0  0  0
   -1.1870    1.8670    0.0178 O   0  0  0  0  0  0  0  0  0  0  0  0
   -2.2344    1.1665    0.0190 O   0  0  0  0  0  0  0  0  0  0  0  0
   -3.4070    1.8224    0.0281 C   0  0  0  0  0  0  0  0  0  0  0  0
   -3.4235    3.0376    0.0348 O   0  0  0  0  0  0  0  0  0  0  0  0
   -4.6766    1.0662    0.0300 C   0  0  0  0  0  0  0  0  0  0  0  0
   -4.6613   -0.3297    0.0166 C   0  0  0  0  0  0  0  0  0  0  0  0
   -5.8501   -1.0295    0.0248 C   0  0  0  0  0  0  0  0  0  0  0  0
   -7.0559   -0.3509    0.0342 C   0  0  0  0  0  0  0  0  0  0  0  0
   -7.0782    1.0326    0.0413 C   0  0  0  0  0  0  0  0  0  0  0  0
   -5.8967    1.7446    0.0395 C   0  0  0  0  0  0  0  0  0  0  0  0
    4.5622    3.9371   -0.0198 H   0  0  0  0  0  0  0  0  0  0  0  0
    4.6013    1.4775   -0.0339 H   0  0  0  0  0  0  0  0  0  0  0  0
    2.4941    0.2091   -0.0210 H   0  0  0  0  0  0  0  0  0  0  0  0
    0.2993    3.8941    0.0095 H   0  0  0  0  0  0  0  0  0  0  0  0
    2.4182    5.1429    0.0072 H   0  0  0  0  0  0  0  0  0  0  0  0
   -3.7208   -0.8605    0.0044 H   0  0  0  0  0  0  0  0  0  0  0  0
   -5.8397   -2.1094    0.0189 H   0  0  0  0  0  0  0  0  0  0  0  0
   -7.9837   -0.9035    0.0356 H   0  0  0  0  0  0  0  0  0  0  0  0
   -8.0228    1.5561    0.0486 H   0  0  0  0  0  0  0  0  0  0  0  0
   -5.9155    2.8245    0.0451 H   0  0  0  0  0  0  0  0  0  0  0  0
  1  6  2  0  0  0  0
  1  2  1  0  0  0  0
  1 19  1  0  0  0  0
  2  3  2  0  0  0  0
  2 20  1  0  0  0  0
  3  4  1  0  0  0  0
  3 21  1  0  0  0  0
  4  5  2  0  0  0  0
  4  7  1  0  0  0  0
  5  6  1  0  0  0  0
  5 22  1  0  0  0  0
  6 23  1  0  0  0  0
  7  8  2  0  0  0  0
  7  9  1  0  0  0  0
  9 10  1  0  0  0  0
 10 11  1  0  0  0  0
 11 12  2  0  0  0  0
 11 13  1  0  0  0  0
 13 18  2  0  0  0  0
 13 14  1  0  0  0  0
 14 15  2  0  0  0  0
 14 24  1  0  0  0  0
 15 16  1  0  0  0  0
 15 25  1  0  0  0  0
 16 17  2  0  0  0  0
 16 26  1  0  0  0  0
 17 18  1  0  0  0  0
 17 27  1  0  0  0  0
 18 28  1  0  0  0  0
M  END
$$$$
