ZINC00007710
  -OEChem-11201307303D

 33 36  0     1  0  0  0  0  0999 V2000
    1.6328    3.3343    0.0047 C   0  0  0  0  0  0  0  0  0  0  0  0
    1.2512    1.9199    0.0004 N   0  0  0  0  0  0  0  0  0  0  0  0
   -0.0180    1.4739    0.0101 C   0  0  0  0  0  0  0  0  0  0  0  0
   -1.0136    2.1693    0.0189 O   0  0  0  0  0  0  0  0  0  0  0  0
    0.0021   -0.0041    0.0020 C   0  0  0  0  0  0  0  0  0  0  0  0
   -0.9765   -0.9853    0.0071 C   0  0  0  0  0  0  0  0  0  0  0  0
   -0.6104   -2.3212   -0.0037 C   0  0  0  0  0  0  0  0  0  0  0  0
    0.7265   -2.6820   -0.0206 C   0  0  0  0  0  0  0  0  0  0  0  0
    1.7149   -1.7114   -0.0256 C   0  0  0  0  0  0  0  0  0  0  0  0
    1.3628   -0.3712   -0.0138 C   0  0  0  0  0  0  0  0  0  0  0  0
    2.1237    0.8961   -0.0137 C   0  0  0  0  0  0  0  0  0  0  0  0
    3.3340    0.9962   -0.0242 O   0  0  0  0  0  0  0  0  0  0  0  0
    0.8238   -4.2004   -0.0310 C   0  0  2  0  0  0  0  0  0  0  0  0
    1.7041   -4.5700   -0.5570 H   0  0  0  0  0  0  0  0  0  0  0  0
   -0.5247   -4.6285   -0.6789 C   0  0  0  0  0  0  0  0  0  0  0  0
   -1.4581   -3.5848    0.0003 C   0  0  1  0  0  0  0  0  0  0  0  0
   -2.4182   -3.4585   -0.5001 H   0  0  0  0  0  0  0  0  0  0  0  0
   -1.5975   -4.0310    1.4685 C   0  0  0  0  0  0  0  0  0  0  0  0
    0.7578   -4.6673    1.4359 C   0  0  0  0  0  0  0  0  0  0  0  0
    1.7374    3.6793    1.0333 H   0  0  0  0  0  0  0  0  0  0  0  0
    2.5818    3.4561   -0.5176 H   0  0  0  0  0  0  0  0  0  0  0  0
    0.8633    3.9198   -0.4985 H   0  0  0  0  0  0  0  0  0  0  0  0
   -2.0206   -0.7094    0.0195 H   0  0  0  0  0  0  0  0  0  0  0  0
    2.7561   -1.9981   -0.0389 H   0  0  0  0  0  0  0  0  0  0  0  0
   -0.7958   -5.6473   -0.4020 H   0  0  0  0  0  0  0  0  0  0  0  0
   -0.5058   -4.5032   -1.7615 H   0  0  0  0  0  0  0  0  0  0  0  0
   -2.3234   -3.3954    1.9756 H   0  0  0  0  0  0  0  0  0  0  0  0
   -1.9306   -5.0682    1.5045 H   0  0  0  0  0  0  0  0  0  0  0  0
    1.7178   -4.4874    1.9197 H   0  0  0  0  0  0  0  0  0  0  0  0
    0.5239   -5.7314    1.4700 H   0  0  0  0  0  0  0  0  0  0  0  0
   -0.2889   -3.8998    2.1469 N   0  3  0  0  0  0  0  0  0  0  0  0
   -0.3715   -4.2547    3.1068 H   0  0  0  0  0  0  0  0  0  0  0  0
   -0.0209   -2.9089    2.1702 H   0  0  0  0  0  0  0  0  0  0  0  0
  1  2  1  0  0  0  0
  1 20  1  0  0  0  0
  1 21  1  0  0  0  0
  1 22  1  0  0  0  0
  2 11  1  0  0  0  0
  2  3  1  0  0  0  0
  3  4  2  0  0  0  0
  3  5  1  0  0  0  0
  5 10  2  0  0  0  0
  5  6  1  0  0  0  0
  6  7  2  0  0  0  0
  6 23  1  0  0  0  0
  7 16  1  0  0  0  0
  7  8  1  0  0  0  0
  8  9  2  0  0  0  0
  8 13  1  0  0  0  0
  9 10  1  0  0  0  0
  9 24  1  0  0  0  0
 10 11  1  0  0  0  0
 11 12  2  0  0  0  0
 13 14  1  0  0  0  0
 13 19  1  0  0  0  0
 13 15  1  0  0  0  0
 15 16  1  0  0  0  0
 15 25  1  0  0  0  0
 15 26  1  0  0  0  0
 16 17  1  0  0  0  0
 16 18  1  0  0  0  0
 18 27  1  0  0  0  0
 18 28  1  0  0  0  0
 18 31  1  0  0  0  0
 19 29  1  0  0  0  0
 19 30  1  0  0  0  0
 19 31  1  0  0  0  0
 31 32  1  0  0  0  0
 31 33  1  0  0  0  0
M  CHG  1  31   1
M  END
$$$$
