@<TRIPOS>MOLECULE
caffein.pdb
14 15 1 0 0
SMALL
NO_CHARGES


@<TRIPOS>ATOM
      1 N1         -7.0415  -37.4642  -48.5491 N.ar      1 CFF    0.0000
      2 C2         -6.1394  -37.1295  -49.5460 C.ar      1 CFF    0.0000
      3 C10        -8.2953  -36.7009  -48.3768 C.3       1 CFF    0.0000
      4 C6         -6.7592  -38.5033  -47.6874 C.ar      1 CFF    0.0000
      5 N3         -4.9603  -37.8324  -49.6850 N.ar      1 CFF    0.0000
      6 O11        -6.4094  -36.1034  -50.3914 O.3       1 CFF    0.0000
      7 C12        -4.0048  -37.4643  -50.7374 C.3       1 CFF    0.0000
      8 C4         -4.7004  -38.8580  -48.8254 C.ar      1 CFF    0.0000
      9 C5         -5.5602  -39.2057  -47.8365 C.ar      1 CFF    0.0000
     10 N9         -3.6037  -39.6449  -48.8188 N.ar      1 CFF    0.0000
     11 O13        -7.6355  -38.8237  -46.7132 O.3       1 CFF    0.0000
     12 N7         -5.0317  -40.2453  -47.1631 N.ar      1 CFF    0.0000
     13 C8         -3.8510  -40.4833  -47.7809 C.ar      1 CFF    0.0000
     14 C14        -5.5271  -40.9944  -46.0137 C.3       1 CFF    0.0000
@<TRIPOS>BOND
     1    1    2 ar
     2    1    3 1
     3    1    4 ar
     4    2    5 ar
     5    2    6 1
     6    4    9 ar
     7    4   11 1
     8    5    7 1
     9    5    8 ar
    10    8    9 ar
    11    8   10 ar
    12    9   12 ar
    13   10   13 ar
    14   12   13 ar
    15   12   14 1
@<TRIPOS>SUBSTRUCTURE
     1 CFF     1 RESIDUE           4 A     CFF     0 ROOT
