50942
  MOE2012           3D

 19 21  0  0  0  0  0  0  0  0999 V2000
    3.9260    1.2230   -0.2410 O   0  0  0  0  0  0  0  0  0  0  0  0
    3.0420   -0.4110    1.0660 O   0  0  0  0  0  0  0  0  0  0  0  0
   -0.1680    2.1890   -0.5430 O   0  0  0  0  0  0  0  0  0  0  0  0
   -4.2850    0.5380    0.6360 O   0  0  0  0  0  0  0  0  0  0  0  0
    0.7910   -0.6430   -0.6750 N   0  0  0  0  0  0  0  0  0  0  0  0
   -2.6200   -0.9470    0.2600 N   0  0  0  0  0  0  0  0  0  0  0  0
   -2.2490    1.3840    0.0480 N   0  0  0  0  0  0  0  0  0  0  0  0
   -0.5760   -2.3950   -0.2190 N   0  0  0  0  0  0  0  0  0  0  0  0
    2.0080    0.0650   -1.0370 C   0  0  0  0  0  0  0  0  0  0  0  0
    2.7480    0.6260    0.1860 C   0  0  0  0  0  0  0  0  0  0  0  0
   -0.4680   -0.1360   -0.3600 C   0  0  0  0  0  0  0  0  0  0  0  0
   -1.2690   -1.1960   -0.0930 C   0  0  0  0  0  0  0  0  0  0  0  0
    4.8570    0.9490    0.7780 C   0  0  0  0  0  0  0  0  0  0  0  0
    4.4490   -0.4680    1.1560 C   0  0  0  0  0  0  0  0  0  0  0  0
   -0.9300    1.2530   -0.2990 C   0  0  0  0  0  0  0  0  0  0  0  0
    0.6430   -1.9790   -0.5670 C   0  0  0  0  0  0  0  0  0  0  0  0
   -3.1060    0.3340    0.3290 C   0  0  0  0  0  0  0  0  0  0  0  0
   -3.5010   -2.0810    0.5520 C   0  0  0  0  0  0  0  0  0  0  0  0
   -2.8170    2.7420    0.1380 C   0  0  0  0  0  0  0  0  0  0  0  0
  1 10  1  0  0  0  0
  1 13  1  0  0  0  0
  2 10  1  0  0  0  0
  2 14  1  0  0  0  0
  3 15  2  0  0  0  0
  4 17  2  0  0  0  0
  5  9  1  0  0  0  0
  5 11  1  0  0  0  0
  5 16  1  0  0  0  0
  6 12  1  0  0  0  0
  6 17  1  0  0  0  0
  6 18  1  0  0  0  0
  7 15  1  0  0  0  0
  7 17  1  0  0  0  0
  7 19  1  0  0  0  0
  8 12  1  0  0  0  0
  8 16  2  0  0  0  0
  9 10  1  0  0  0  0
 11 12  2  0  0  0  0
 11 15  1  0  0  0  0
 13 14  1  0  0  0  0
M  END
>  <Molecule name>
50942

>  <Activity>
1

$$$$
10400587
  MOE2012           3D

 19 20  0  0  0  0  0  0  0  0999 V2000
   -1.4520   -2.0300   -0.2400 O   0  0  0  0  0  0  0  0  0  0  0  0
    3.0980   -1.8220    0.3000 O   0  0  0  0  0  0  0  0  0  0  0  0
   -1.4010    0.9190   -0.7630 N   0  0  0  0  0  0  0  0  0  0  0  0
    2.0130    0.0940   -0.2330 N   0  0  0  0  0  0  0  0  0  0  0  0
    0.8390   -1.9510    0.0250 N   0  0  0  0  0  0  0  0  0  0  0  0
    0.5340    2.1020   -0.7570 N   0  0  0  0  0  0  0  0  0  0  0  0
   -0.3580    0.0360   -0.4900 C   0  0  0  0  0  0  0  0  0  0  0  0
    0.7880    0.7600   -0.4930 C   0  0  0  0  0  0  0  0  0  0  0  0
   -2.8260    0.6580   -0.8720 C   0  0  0  0  0  0  0  0  0  0  0  0
    3.2490    0.8880   -0.2360 C   0  0  0  0  0  0  0  0  0  0  0  0
   -3.5010    0.6030    0.5060 C   0  0  0  0  0  0  0  0  0  0  0  0
   -0.3910   -1.4050   -0.2290 C   0  0  0  0  0  0  0  0  0  0  0  0
    2.0340   -1.2520    0.0410 C   0  0  0  0  0  0  0  0  0  0  0  0
   -0.7910    2.1130   -0.9060 C   0  0  0  0  0  0  0  0  0  0  0  0
    3.5820    1.4140    1.1700 C   0  0  0  0  0  0  0  0  0  0  0  0
   -5.0050    0.3140    0.4120 C   0  0  0  0  0  0  0  0  0  0  0  0
    0.9160   -3.3960    0.3130 C   0  0  0  0  0  0  0  0  0  0  0  0
    4.8580    2.2610    1.1920 C   0  0  0  0  0  0  0  0  0  0  0  0
   -5.6810    0.2580    1.7860 C   0  0  0  0  0  0  0  0  0  0  0  0
  1 12  2  0  0  0  0
  2 13  2  0  0  0  0
  3  7  1  0  0  0  0
  3  9  1  0  0  0  0
  3 14  1  0  0  0  0
  4  8  1  0  0  0  0
  4 10  1  0  0  0  0
  4 13  1  0  0  0  0
  5 12  1  0  0  0  0
  5 13  1  0  0  0  0
  5 17  1  0  0  0  0
  6  8  1  0  0  0  0
  6 14  2  0  0  0  0
  7  8  2  0  0  0  0
  7 12  1  0  0  0  0
  9 11  1  0  0  0  0
 10 15  1  0  0  0  0
 11 16  1  0  0  0  0
 15 18  1  0  0  0  0
 16 19  1  0  0  0  0
M  END
>  <Molecule name>
10400587

>  <Activity>
1

$$$$
22180672
  MOE2012           3D

 25 28  0  0  0  0  0  0  0  0999 V2000
   -4.2850   -3.5760    0.1140 F   0  0  0  0  0  0  0  0  0  0  0  0
   -2.0290    4.6450   -0.4900 O   0  0  0  0  0  0  0  0  0  0  0  0
    3.0190   -1.2550    0.1160 N   0  0  0  0  0  0  0  0  0  0  0  0
   -1.6930    2.5090    0.2200 N   0  0  0  0  0  0  0  0  0  0  0  0
    1.9140   -2.0420    0.2020 N   0  0  0  0  0  0  0  0  0  0  0  0
    4.9160    0.7620   -0.0380 N   0  0  0  0  0  0  0  0  0  0  0  0
    1.2210    0.1620   -0.0840 C   0  0  0  0  0  0  0  0  0  0  0  0
    0.3760    1.3280   -0.2310 C   0  0  0  0  0  0  0  0  0  0  0  0
    2.6350    0.0550   -0.0490 C   0  0  0  0  0  0  0  0  0  0  0  0
    0.8470   -1.2220    0.0840 C   0  0  0  0  0  0  0  0  0  0  0  0
   -0.8510    1.3860    0.3250 C   0  0  0  0  0  0  0  0  0  0  0  0
   -0.4830   -1.8370    0.0900 C   0  0  0  0  0  0  0  0  0  0  0  0
    0.7890    2.5000   -0.9820 C   0  0  0  0  0  0  0  0  0  0  0  0
   -3.0010    2.4200    0.8840 C   0  0  0  0  0  0  0  0  0  0  0  0
    3.6090    1.0720   -0.1080 C   0  0  0  0  0  0  0  0  0  0  0  0
   -1.3130    3.6440   -0.4350 C   0  0  0  0  0  0  0  0  0  0  0  0
    0.0010    3.5890   -1.0770 C   0  0  0  0  0  0  0  0  0  0  0  0
    4.3550   -1.6470    0.1940 C   0  0  0  0  0  0  0  0  0  0  0  0
   -1.4010   -1.5610   -0.9470 C   0  0  0  0  0  0  0  0  0  0  0  0
   -0.8600   -2.7140    1.1300 C   0  0  0  0  0  0  0  0  0  0  0  0
   -2.9340    2.9340    2.3280 C   0  0  0  0  0  0  0  0  0  0  0  0
    5.2470   -0.5440    0.1000 C   0  0  0  0  0  0  0  0  0  0  0  0
   -2.6820   -2.1450   -0.9380 C   0  0  0  0  0  0  0  0  0  0  0  0
   -2.1410   -3.3000    1.1390 C   0  0  0  0  0  0  0  0  0  0  0  0
   -3.0530   -3.0140    0.1050 C   0  0  0  0  0  0  0  0  0  0  0  0
  1 25  1  0  0  0  0
  2 16  2  0  0  0  0
  3  5  1  0  0  0  0
  3  9  1  0  0  0  0
  3 18  1  0  0  0  0
  4 11  1  0  0  0  0
  4 14  1  0  0  0  0
  4 16  1  0  0  0  0
  5 10  2  0  0  0  0
  6 15  2  0  0  0  0
  6 22  1  0  0  0  0
  7  8  1  0  0  0  0
  7  9  2  0  0  0  0
  7 10  1  0  0  0  0
  8 11  2  0  0  0  0
  8 13  1  0  0  0  0
  9 15  1  0  0  0  0
 10 12  1  0  0  0  0
 12 19  2  0  0  0  0
 12 20  1  0  0  0  0
 13 17  2  0  0  0  0
 14 21  1  0  0  0  0
 16 17  1  0  0  0  0
 18 22  2  0  0  0  0
 19 23  1  0  0  0  0
 20 24  2  0  0  0  0
 23 25  2  0  0  0  0
 24 25  1  0  0  0  0
M  END
>  <Molecule name>
22180672

>  <Activity>
1

$$$$
15233882
  MOE2012           3D

 24 29  0  0  0  0  0  0  0  0999 V2000
   -3.8710    0.8990    0.6680 O   0  0  0  0  0  0  0  0  0  0  0  0
   -1.1900   -2.2690   -1.3770 O   0  0  0  0  0  0  0  0  0  0  0  0
   -1.6620    1.2490    0.5770 N   0  0  0  0  0  0  0  0  0  0  0  0
    1.0890   -0.7030   -0.4300 N   0  0  0  0  0  0  0  0  0  0  0  0
   -2.6260   -0.7160   -0.4120 N   0  0  0  0  0  0  0  0  0  0  0  0
    0.9000    1.2470    0.6540 N   0  0  0  0  0  0  0  0  0  0  0  0
    3.7330   -0.6330    1.2810 C   0  0  0  0  0  0  0  0  0  0  0  0
    3.8330    0.5030   -1.1680 C   0  0  0  0  0  0  0  0  0  0  0  0
    3.2280    0.3820    0.2420 C   0  0  0  0  0  0  0  0  0  0  0  0
    5.0790   -1.3270    1.3290 C   0  0  0  0  0  0  0  0  0  0  0  0
    3.8300   -2.1150    1.0010 C   0  0  0  0  0  0  0  0  0  0  0  0
    5.3040    0.7740   -1.3840 C   0  0  0  0  0  0  0  0  0  0  0  0
    4.6870   -0.5020   -1.9140 C   0  0  0  0  0  0  0  0  0  0  0  0
    1.7340    0.3230    0.1600 C   0  0  0  0  0  0  0  0  0  0  0  0
   -1.7870    2.5010    1.2780 C   0  0  0  0  0  0  0  0  0  0  0  0
   -3.7740   -1.5350   -0.8340 C   0  0  0  0  0  0  0  0  0  0  0  0
   -0.9780    3.7100    0.8490 C   0  0  0  0  0  0  0  0  0  0  0  0
   -2.4640    3.6720    0.5960 C   0  0  0  0  0  0  0  0  0  0  0  0
   -5.0070   -1.7280    0.0370 C   0  0  0  0  0  0  0  0  0  0  0  0
   -5.1130   -0.9350   -1.2420 C   0  0  0  0  0  0  0  0  0  0  0  0
   -0.3610    0.7470    0.3300 C   0  0  0  0  0  0  0  0  0  0  0  0
   -0.2590   -0.4320   -0.3110 C   0  0  0  0  0  0  0  0  0  0  0  0
   -2.7730    0.4860    0.2910 C   0  0  0  0  0  0  0  0  0  0  0  0
   -1.3930   -1.2230   -0.7580 C   0  0  0  0  0  0  0  0  0  0  0  0
  1 23  2  0  0  0  0
  2 24  2  0  0  0  0
  3 15  1  0  0  0  0
  3 21  1  0  0  0  0
  3 23  1  0  0  0  0
  4 14  1  0  0  0  0
  4 22  1  0  0  0  0
  5 16  1  0  0  0  0
  5 23  1  0  0  0  0
  5 24  1  0  0  0  0
  6 14  2  0  0  0  0
  6 21  1  0  0  0  0
  7  9  1  0  0  0  0
  7 10  1  0  0  0  0
  7 11  1  0  0  0  0
  8  9  1  0  0  0  0
  8 12  1  0  0  0  0
  8 13  1  0  0  0  0
  9 14  1  0  0  0  0
 10 11  1  0  0  0  0
 12 13  1  0  0  0  0
 15 17  1  0  0  0  0
 15 18  1  0  0  0  0
 16 19  1  0  0  0  0
 16 20  1  0  0  0  0
 17 18  1  0  0  0  0
 19 20  1  0  0  0  0
 21 22  2  0  0  0  0
 22 24  1  0  0  0  0
M  END
>  <Molecule name>
15233882

>  <Activity>
1

$$$$
19026214
  MOE2012           3D

 15 15  0  0  0  0  0  0  0  0999 V2000
    5.2260   -0.1850    0.2860 S   0  0  0  0  0  0  0  0  0  0  0  0
   -2.6030    4.2860    0.1910 S   0  0  0  0  0  0  0  0  0  0  0  0
   -2.1020   -3.0580   -0.9410 O   0  0  0  0  0  0  0  0  0  0  0  0
    2.6280   -1.2460    0.1080 N   0  0  0  0  0  0  0  0  0  0  0  0
   -0.3560    2.5970    0.1860 N   0  0  0  0  0  0  0  0  0  0  0  0
   -3.3720   -1.6540    0.2690 N   0  0  0  0  0  0  0  0  0  0  0  0
   -1.0720   -1.0600   -0.1420 C   0  0  0  0  0  0  0  0  0  0  0  0
   -1.2780    0.3360   -0.0580 C   0  0  0  0  0  0  0  0  0  0  0  0
    0.2440   -1.5660   -0.0940 C   0  0  0  0  0  0  0  0  0  0  0  0
    1.3460   -0.7010    0.0580 C   0  0  0  0  0  0  0  0  0  0  0  0
   -0.1820    1.2170    0.0950 C   0  0  0  0  0  0  0  0  0  0  0  0
    1.1240    0.6920    0.1550 C   0  0  0  0  0  0  0  0  0  0  0  0
   -2.2280   -2.0020   -0.3260 C   0  0  0  0  0  0  0  0  0  0  0  0
    3.7620   -0.8130    0.2260 C   0  0  0  0  0  0  0  0  0  0  0  0
   -1.3020    3.3670    0.1710 C   0  0  0  0  0  0  0  0  0  0  0  0
  1 14  2  0  0  0  0
  2 15  2  0  0  0  0
  3 13  2  0  0  0  0
  4 10  1  0  0  0  0
  4 14  2  3  0  0  0
  5 11  1  0  0  0  0
  5 15  2  3  0  0  0
  6 13  1  0  0  0  0
  7  8  1  0  0  0  0
  7  9  2  0  0  0  0
  7 13  1  0  0  0  0
  8 11  2  0  0  0  0
  9 10  1  0  0  0  0
 10 12  2  0  0  0  0
 11 12  1  0  0  0  0
M  END
>  <Molecule name>
19026214

>  <Activity>
1

$$$$
9902054
  MOE2012           3D

 24 27  0  0  1  0  0  0  0  0999 V2000
    4.4050    3.1360    0.1040 O   0  0  0  0  0  0  0  0  0  0  0  0
    1.7300   -1.7180   -0.4600 N   0  0  0  0  0  0  0  0  0  0  0  0
    0.3810   -3.4890    0.0950 N   0  0  0  0  0  0  0  0  0  0  0  0
   -0.9280    0.0040   -0.1280 N   0  0  0  0  0  0  0  0  0  0  0  0
   -2.8450   -1.0720    0.4620 N   0  0  0  0  0  0  0  0  0  0  0  0
   -1.9720   -3.3800    0.5980 N   0  0  0  0  0  0  0  0  0  0  0  0
   -2.8080    1.3750    0.0720 N   0  0  0  0  0  0  0  0  0  0  0  0
    2.2390    0.5110    0.5640 C   0  0  3  0  0  0  0  0  0  0  0  0
    4.2380    0.7500   -0.3750 C   0  0  3  0  0  0  0  0  0  0  0  0
    3.6920    0.2940    0.9740 C   0  0  0  0  0  0  0  0  0  0  0  0
    2.1140   -0.3380   -0.7230 C   0  0  3  0  0  0  0  0  0  0  0  0
    3.5300   -0.2310   -1.3280 C   0  0  0  0  0  0  0  0  0  0  0  0
    3.6140    2.1530   -0.5350 C   0  0  3  0  0  0  0  0  0  0  0  0
    2.2500    2.0000    0.1710 C   0  0  0  0  0  0  0  0  0  0  0  0
    0.5010   -2.1590   -0.1260 C   0  0  0  0  0  0  0  0  0  0  0  0
   -0.6630   -1.3500    0.0100 C   0  0  0  0  0  0  0  0  0  0  0  0
   -1.8560   -2.0390    0.3740 C   0  0  0  0  0  0  0  0  0  0  0  0
   -2.2020    0.1100    0.1340 C   0  0  0  0  0  0  0  0  0  0  0  0
   -0.8050   -4.0070    0.4320 C   0  0  0  0  0  0  0  0  0  0  0  0
   -2.0610    2.6350    0.2140 C   0  0  0  0  0  0  0  0  0  0  0  0
   -4.2290   -1.2920    0.8440 C   0  0  0  0  0  0  0  0  0  0  0  0
   -4.2070    1.6020   -0.2880 C   0  0  0  0  0  0  0  0  0  0  0  0
   -1.6450    3.2160   -1.1480 C   0  0  0  0  0  0  0  0  0  0  0  0
   -2.7620    3.6750    1.1100 C   0  0  0  0  0  0  0  0  0  0  0  0
  1 13  1  0  0  0  0
  2 11  1  0  0  0  0
  2 15  1  0  0  0  0
  3 15  1  0  0  0  0
  3 19  2  0  0  0  0
  4 16  1  0  0  0  0
  4 18  2  0  0  0  0
  5 17  1  0  0  0  0
  5 18  1  0  0  0  0
  5 21  1  0  0  0  0
  6 17  2  0  0  0  0
  6 19  1  0  0  0  0
  7 18  1  0  0  0  0
  7 20  1  0  0  0  0
  7 22  1  0  0  0  0
  8 10  1  0  0  0  0
  8 11  1  0  0  0  0
  8 14  1  0  0  0  0
  9 10  1  0  0  0  0
  9 12  1  0  0  0  0
  9 13  1  0  0  0  0
 11 12  1  0  0  0  0
 13 14  1  0  0  0  0
 15 16  2  0  0  0  0
 16 17  1  0  0  0  0
 20 23  1  0  0  0  0
 20 24  1  0  0  0  0
M  END
>  <Molecule name>
9902054

>  <Activity>
1

$$$$
11462102
  MOE2012           3D

 26 28  0  0  0  0  0  0  0  0999 V2000
   -2.9840   -0.6700   -1.6610 O   0  0  0  0  0  0  0  0  0  0  0  0
   -2.0880    0.8830   -0.2500 N   0  0  0  0  0  0  0  0  0  0  0  0
    0.2160    1.4280    0.0130 N   0  0  0  0  0  0  0  0  0  0  0  0
    1.9280   -0.2040    0.0020 N   0  0  0  0  0  0  0  0  0  0  0  0
   -5.4970    0.2450    0.1340 C   0  0  0  0  0  0  0  0  0  0  0  0
   -4.4730    0.9850   -0.7740 C   0  0  0  0  0  0  0  0  0  0  0  0
   -6.7890    1.0850    0.1790 C   0  0  0  0  0  0  0  0  0  0  0  0
   -5.8490   -1.1520   -0.4200 C   0  0  0  0  0  0  0  0  0  0  0  0
   -4.9600    0.1000    1.5730 C   0  0  0  0  0  0  0  0  0  0  0  0
   -3.1030    0.3080   -0.9220 C   0  0  0  0  0  0  0  0  0  0  0  0
   -0.7280    0.4850   -0.1910 C   0  0  0  0  0  0  0  0  0  0  0  0
   -0.3540   -0.8760   -0.2800 C   0  0  0  0  0  0  0  0  0  0  0  0
    1.0180   -1.1860   -0.1840 C   0  0  0  0  0  0  0  0  0  0  0  0
    1.4990    1.0580    0.0960 C   0  0  0  0  0  0  0  0  0  0  0  0
    1.5400   -2.5670   -0.2770 C   0  0  0  0  0  0  0  0  0  0  0  0
    2.5140    2.1190    0.3100 C   0  0  0  0  0  0  0  0  0  0  0  0
    0.8720   -3.5430   -1.0540 C   0  0  0  0  0  0  0  0  0  0  0  0
    2.7120   -2.9570    0.4150 C   0  0  0  0  0  0  0  0  0  0  0  0
    3.8890    1.7960    0.4250 C   0  0  0  0  0  0  0  0  0  0  0  0
    2.1320    3.4820    0.4050 C   0  0  0  0  0  0  0  0  0  0  0  0
    1.3580   -4.8620   -1.1410 C   0  0  0  0  0  0  0  0  0  0  0  0
    3.2030   -4.2740    0.3310 C   0  0  0  0  0  0  0  0  0  0  0  0
    4.8520    2.8040    0.6280 C   0  0  0  0  0  0  0  0  0  0  0  0
    3.0960    4.4880    0.6090 C   0  0  0  0  0  0  0  0  0  0  0  0
    2.5250   -5.2290   -0.4480 C   0  0  0  0  0  0  0  0  0  0  0  0
    4.4570    4.1500    0.7200 C   0  0  0  0  0  0  0  0  0  0  0  0
  1 10  2  0  0  0  0
  2 10  1  0  0  0  0
  2 11  1  0  0  0  0
  3 11  1  0  0  0  0
  3 14  2  0  0  0  0
  4 13  2  0  0  0  0
  4 14  1  0  0  0  0
  5  6  1  0  0  0  0
  5  7  1  0  0  0  0
  5  8  1  0  0  0  0
  5  9  1  0  0  0  0
  6 10  1  0  0  0  0
 11 12  2  0  0  0  0
 12 13  1  0  0  0  0
 13 15  1  0  0  0  0
 14 16  1  0  0  0  0
 15 17  2  0  0  0  0
 15 18  1  0  0  0  0
 16 19  2  0  0  0  0
 16 20  1  0  0  0  0
 17 21  1  0  0  0  0
 18 22  2  0  0  0  0
 19 23  1  0  0  0  0
 20 24  2  0  0  0  0
 21 25  2  0  0  0  0
 22 25  1  0  0  0  0
 23 26  2  0  0  0  0
 24 26  1  0  0  0  0
M  END
>  <Molecule name>
11462102

>  <Activity>
1

$$$$
3696
  MOE2012           3D

 21 23  0  0  0  0  0  0  0  0999 V2000
   -0.3030   -0.0820   -0.0020 N   0  0  0  0  0  0  0  0  0  0  0  0
    0.8850   -0.4220   -0.7900 C   0  0  0  0  0  0  0  0  0  0  0  0
   -0.4930    1.2100    0.3320 C   0  0  0  0  0  0  0  0  0  0  0  0
   -1.2200   -1.0510    0.2090 C   0  0  0  0  0  0  0  0  0  0  0  0
   -2.1630    1.3370   -1.5650 C   0  0  0  0  0  0  0  0  0  0  0  0
   -3.1180    0.2180   -1.1010 C   0  0  0  0  0  0  0  0  0  0  0  0
   -1.4030    1.9820   -0.4200 C   0  0  0  0  0  0  0  0  0  0  0  0
   -2.5550   -0.9560   -0.2870 C   0  0  0  0  0  0  0  0  0  0  0  0
    2.1900   -0.4690    0.0260 C   0  0  0  0  0  0  0  0  0  0  0  0
    3.3780   -0.9570   -0.8210 C   0  0  0  0  0  0  0  0  0  0  0  0
    0.1850    1.7930    1.4240 C   0  0  0  0  0  0  0  0  0  0  0  0
   -0.8320   -2.1990    0.9390 C   0  0  0  0  0  0  0  0  0  0  0  0
   -1.6160    3.3370   -0.0930 C   0  0  0  0  0  0  0  0  0  0  0  0
   -3.4550   -2.0130   -0.0260 C   0  0  0  0  0  0  0  0  0  0  0  0
   -0.0290    3.1460    1.7500 C   0  0  0  0  0  0  0  0  0  0  0  0
   -1.7430   -3.2410    1.1870 C   0  0  0  0  0  0  0  0  0  0  0  0
   -0.9270    3.9190    0.9890 C   0  0  0  0  0  0  0  0  0  0  0  0
   -3.0580   -3.1470    0.7030 C   0  0  0  0  0  0  0  0  0  0  0  0
    5.6070   -1.9870   -0.6970 C   0  0  0  0  0  0  0  0  0  0  0  0
    5.2350    0.1920    0.3540 C   0  0  0  0  0  0  0  0  0  0  0  0
    4.6250   -1.1030   -0.0290 N   0  3  0  0  0  0  0  0  0  0  0  0
  1  2  1  0  0  0  0
  1  3  1  0  0  0  0
  1  4  1  0  0  0  0
  2  9  1  0  0  0  0
  3  7  2  0  0  0  0
  3 11  1  0  0  0  0
  4  8  2  0  0  0  0
  4 12  1  0  0  0  0
  5  6  1  0  0  0  0
  5  7  1  0  0  0  0
  6  8  1  0  0  0  0
  7 13  1  0  0  0  0
  8 14  1  0  0  0  0
  9 10  1  0  0  0  0
 10 21  1  0  0  0  0
 11 15  2  0  0  0  0
 12 16  2  0  0  0  0
 13 17  2  0  0  0  0
 14 18  2  0  0  0  0
 15 17  1  0  0  0  0
 16 18  1  0  0  0  0
 19 21  1  0  0  0  0
 20 21  1  0  0  0  0
M  CHG  1  21   1
M  END
>  <Molecule name>
3696

>  <Activity>
1

$$$$
9881674
  MOE2012           3D

 20 22  0  0  0  0  0  0  0  0999 V2000
    0.7510    3.0160   -0.6730 O   0  0  0  0  0  0  0  0  0  0  0  0
   -3.7650    1.7650   -0.0970 N   0  0  0  0  0  0  0  0  0  0  0  0
    3.3550   -2.7900    0.2850 N   0  0  0  0  0  0  0  0  0  0  0  0
   -4.9770   -1.7390    0.2580 N   0  0  0  0  0  0  0  0  0  0  0  0
   -0.2670   -0.4600    0.1480 C   0  0  0  0  0  0  0  0  0  0  0  0
   -0.2850    0.9550    0.0220 C   0  0  0  0  0  0  0  0  0  0  0  0
    0.9740   -1.2520    0.1950 C   0  0  0  0  0  0  0  0  0  0  0  0
    0.8950    1.8220   -0.0260 C   0  0  0  0  0  0  0  0  0  0  0  0
   -1.5060   -1.1370    0.2150 C   0  0  0  0  0  0  0  0  0  0  0  0
   -2.7210   -0.4240    0.1380 C   0  0  0  0  0  0  0  0  0  0  0  0
   -2.6740    0.9830   -0.0080 C   0  0  0  0  0  0  0  0  0  0  0  0
    1.8570   -1.2980   -0.9060 C   0  0  0  0  0  0  0  0  0  0  0  0
    1.3120   -2.0080    1.3370 C   0  0  0  0  0  0  0  0  0  0  0  0
    2.1720    1.7100    0.4580 C   0  0  0  0  0  0  0  0  0  0  0  0
    2.8580    2.8980    0.0820 C   0  0  0  0  0  0  0  0  0  0  0  0
    1.9500    3.6550   -0.6020 C   0  0  0  0  0  0  0  0  0  0  0  0
    3.0280   -2.0740   -0.8110 C   0  0  0  0  0  0  0  0  0  0  0  0
    2.5080   -2.7530    1.3340 C   0  0  0  0  0  0  0  0  0  0  0  0
   -3.9780   -1.1580    0.2050 C   0  0  0  0  0  0  0  0  0  0  0  0
   -1.4740    1.5970   -0.0590 N   0  3  0  0  0  0  0  0  0  0  0  0
  1  8  1  0  0  0  0
  1 16  1  0  0  0  0
  2 11  1  0  0  0  0
  3 17  2  0  0  0  0
  3 18  1  0  0  0  0
  4 19  3  0  0  0  0
  5  6  1  0  0  0  0
  5  7  1  0  0  0  0
  5  9  2  0  0  0  0
  6  8  1  0  0  0  0
  6 20  2  0  0  0  0
  7 12  2  0  0  0  0
  7 13  1  0  0  0  0
  8 14  2  0  0  0  0
  9 10  1  0  0  0  0
 10 11  2  0  0  0  0
 10 19  1  0  0  0  0
 11 20  1  0  0  0  0
 12 17  1  0  0  0  0
 13 18  2  0  0  0  0
 14 15  1  0  0  0  0
 15 16  2  0  0  0  0
M  CHG  1  20   1
M  END
>  <Molecule name>
9881674

>  <Activity>
1

$$$$
19911821
  MOE2012           3D

 25 29  0  0  1  0  0  0  0  0999 V2000
    0.4080    1.9890    0.2270 N   0  0  0  0  0  0  0  0  0  0  0  0
   -2.6070   -0.6570    0.1600 N   0  0  0  0  0  0  0  0  0  0  0  0
   -1.8660    1.7210   -0.0950 N   0  0  0  0  0  0  0  0  0  0  0  0
   -2.0020   -1.8380    0.4680 N   0  0  0  0  0  0  0  0  0  0  0  0
    2.7230    1.7010    0.6440 C   0  0  3  0  0  0  0  0  0  0  0  0
    1.6550    2.7600    0.2900 C   0  0  0  0  0  0  0  0  0  0  0  0
    0.6660    0.7050    0.4670 C   0  0  0  0  0  0  0  0  0  0  0  0
    3.9050    1.6360   -0.3440 C   0  0  0  0  0  0  0  0  0  0  0  0
   -0.4550   -0.1840    0.4290 C   0  0  0  0  0  0  0  0  0  0  0  0
   -1.6660    0.3580    0.1430 C   0  0  0  0  0  0  0  0  0  0  0  0
   -0.8440    2.5490   -0.0580 C   0  0  0  0  0  0  0  0  0  0  0  0
    4.6650    0.3200   -0.3040 C   0  0  0  0  0  0  0  0  0  0  0  0
   -0.7110   -1.5650    0.6250 C   0  0  0  0  0  0  0  0  0  0  0  0
    4.4650   -0.6500   -1.3090 C   0  0  0  0  0  0  0  0  0  0  0  0
    5.5720    0.0620    0.7450 C   0  0  0  0  0  0  0  0  0  0  0  0
   -4.0050   -0.6050   -0.0690 C   0  0  0  0  0  0  0  0  0  0  0  0
    5.1660   -1.8710   -1.2630 C   0  0  0  0  0  0  0  0  0  0  0  0
    6.2730   -1.1590    0.7900 C   0  0  0  0  0  0  0  0  0  0  0  0
   -4.5440    0.2730   -1.0370 C   0  0  0  0  0  0  0  0  0  0  0  0
   -4.8770   -1.4420    0.6640 C   0  0  0  0  0  0  0  0  0  0  0  0
    6.0700   -2.1260   -0.2140 C   0  0  0  0  0  0  0  0  0  0  0  0
   -5.9340    0.3180   -1.2620 C   0  0  0  0  0  0  0  0  0  0  0  0
   -6.2660   -1.3950    0.4390 C   0  0  0  0  0  0  0  0  0  0  0  0
   -6.7950   -0.5150   -0.5230 C   0  0  0  0  0  0  0  0  0  0  0  0
    1.9550    0.4520    0.7050 N   0  3  0  0  0  0  0  0  0  0  0  0
  1  6  1  0  0  0  0
  1  7  1  0  0  0  0
  1 11  1  0  0  0  0
  2  4  1  0  0  0  0
  2 10  1  0  0  0  0
  2 16  1  0  0  0  0
  3 10  1  0  0  0  0
  3 11  2  0  0  0  0
  4 13  2  0  0  0  0
  5  6  1  0  0  0  0
  5  8  1  0  0  0  0
  5 25  1  0  0  0  0
  7  9  1  0  0  0  0
  7 25  2  0  0  0  0
  8 12  1  0  0  0  0
  9 10  2  0  0  0  0
  9 13  1  0  0  0  0
 12 14  2  0  0  0  0
 12 15  1  0  0  0  0
 14 17  1  0  0  0  0
 15 18  2  0  0  0  0
 16 19  2  0  0  0  0
 16 20  1  0  0  0  0
 17 21  2  0  0  0  0
 18 21  1  0  0  0  0
 19 22  1  0  0  0  0
 20 23  2  0  0  0  0
 22 24  2  0  0  0  0
 23 24  1  0  0  0  0
M  CHG  1  25   1
M  END
>  <Molecule name>
19911821

>  <Activity>
1

$$$$
